Version 4
SHEET 1 1392 688
WIRE 320 176 160 176
WIRE 368 176 320 176
WIRE 496 176 448 176
WIRE 560 176 496 176
WIRE 688 176 640 176
WIRE 704 176 688 176
WIRE 1040 176 704 176
WIRE 496 208 496 176
WIRE 160 224 160 176
WIRE 320 224 320 176
WIRE 704 240 704 176
WIRE 752 240 704 240
WIRE 1040 240 1040 176
WIRE 1040 240 1008 240
WIRE 240 272 224 272
WIRE 256 272 240 272
WIRE 704 272 704 240
WIRE 832 304 752 304
WIRE 496 320 496 288
WIRE 240 336 240 272
WIRE 320 336 320 320
WIRE 320 336 240 336
WIRE 832 336 832 304
WIRE 160 352 160 320
WIRE 320 352 320 336
WIRE 704 368 704 336
WIRE 704 368 656 368
WIRE 752 368 704 368
WIRE 656 384 656 368
WIRE 240 400 224 400
WIRE 256 400 240 400
WIRE 704 400 704 368
WIRE 832 432 832 400
WIRE 832 432 752 432
WIRE 1040 432 1008 432
WIRE 160 464 160 448
WIRE 240 464 240 400
WIRE 240 464 160 464
WIRE 320 464 320 448
WIRE 352 464 320 464
WIRE 320 496 320 464
WIRE 416 496 320 496
WIRE 464 496 416 496
WIRE 672 496 544 496
WIRE 704 496 704 464
WIRE 704 496 672 496
WIRE 1040 496 1040 432
WIRE 1040 496 704 496
WIRE 256 528 208 528
WIRE 160 544 160 464
WIRE 256 544 256 528
WIRE 320 544 320 496
WIRE 416 544 416 496
WIRE 208 560 208 528
WIRE 160 656 160 624
WIRE 208 656 208 608
WIRE 208 656 160 656
WIRE 256 656 256 624
WIRE 256 656 208 656
WIRE 320 656 320 624
WIRE 320 656 256 656
WIRE 416 656 416 608
WIRE 416 656 320 656
WIRE 416 672 416 656
FLAG 416 672 0
FLAG 656 384 0
FLAG 496 320 0
FLAG 256 528 T
FLAG 672 496 N
FLAG 352 464 ADC
IOPIN 352 464 Out
FLAG 688 176 P
FLAG 832 304 CP
FLAG 832 432 CN
DATAFLAG 160 464 "$"
DATAFLAG 320 336 "$"
DATAFLAG 192 176 "$"
SYMBOL Res 304 528 R0
SYMATTR InstName R3
SYMATTR Value 26K7
SYMBOL Cap 400 544 R0
SYMATTR InstName C1
SYMATTR Value 1000p
SYMBOL current 464 496 M90
WINDOW 0 -32 40 VBottom 2
WINDOW 3 32 40 VTop 2
WINDOW 39 54 40 VTop 2
SYMATTR InstName I1
SYMATTR Value 100µ
SYMATTR SpiceLine load
SYMBOL Cap 720 272 M0
SYMATTR InstName C3
SYMATTR Value 100n
SYMBOL PowerProducts/LTC1144 880 336 R0
WINDOW 3 1 66 Center 2
WINDOW 0 0 -64 Center 1
SYMATTR InstName U1
SYMBOL Cap 848 336 M0
SYMATTR InstName C4
SYMATTR Value 100n
SYMBOL Voltage 496 192 R0
SYMATTR InstName V2
SYMATTR Value 3.3
SYMBOL g2 160 640 R180
SYMATTR InstName G1
SYMATTR Value {G}
SYMBOL Voltage 256 528 R0
WINDOW 3 24 96 Invisible 2
SYMATTR Value PWL file=./100k.pwl
SYMATTR InstName V1
SYMBOL Res 656 160 R90
WINDOW 0 0 56 VBottom 2
WINDOW 3 32 56 VTop 2
SYMATTR InstName R2
SYMATTR Value 200
SYMBOL Res 464 160 R90
WINDOW 0 0 56 VBottom 2
WINDOW 3 32 56 VTop 2
SYMATTR InstName R1
SYMATTR Value 3K3
SYMBOL pnp 224 320 R180
SYMATTR InstName Q1
SYMBOL pnp 256 320 M180
SYMATTR InstName Q2
SYMBOL pnp 224 448 R180
SYMATTR InstName Q3
SYMBOL pnp 256 448 M180
SYMATTR InstName Q4
SYMBOL Cap 720 400 M0
SYMATTR InstName C2
SYMATTR Value 100n
TEXT 56 672 Left 2 !.param G=(226.5u)/562
TEXT 576 576 Left 2 !.tran .75m
TEXT 576 528 Left 2 !.ic V(Y)=0 V(N)=0 V(P)=0 V(ADC)=0
TEXT 576 552 Left 2 !.opt plotwinsize=0
TEXT 504 656 Left 2 ;rwHelgeson 2025. 250 to 350 ºK Temp Sense
TEXT 176 584 Left 2 ;LM234
